200 mHz:
from 30s to 50s
.tran 0 50 30 0.1

500 mHz:
from 20s to 30s
.tran 0 30 20 0.1

1200 mHz:
from 10s to 15s increments of 0.1ms
.tran 0 15 10 0.1


SQR_200:
PULSE(0 4 1m 1m 1m 2.5 5 100)

SQR_500:
PULSE(0 4 1m 1m 1m 1 2 100)

SQR_1200:
PULSE(0 4 1m 1m 1m 0.4166666667 0.8333333333 100)


TRG_200:
PULSE(0 4 1m 2.5 2.5 0 5 100)

TRG_500:
PULSE(0 4 1m 1 1 0 2 100)

TRG_1200:
PULSE(0 4 1m 0.4166666667 0.4166666667 0 0.8333333334 100)


SIN_200:
SINE(0 2.5 0.2 0 0 0 100)

SIN_500:
SINE(0 2.5 0.5 0 0 0 100)

SIN_1200:
SINE(0 2.5 1.2 0 0 0 100)


RCT_200:
SINE(1 2.5 0.2 0 0 -90 100)

RCT_500:
SINE(1 2.5 0.5 0 0 -90 100)

RCT_1200:
SINE(1 2.5 1.2 0 0 -90 100)

